8
! from R.E.D. examples/5-Fragment-2
C  3.8773433513   0.6771611686  -8.4174778227
H  3.8098203925   1.7528960502  -8.3985856189
H  3.3442397172   0.2755335861  -9.2640104915
H  3.5072959555   0.2547411367  -7.4972887091
N  5.3302884547   0.3004256695  -8.5560082997
H  5.4539350425  -0.7032088619  -8.5792297665
H  5.7316860799   0.6722689067  -9.4067268206
H  5.8813910065   0.6531823440  -7.7846724710