25
! from R.E.D. examples/4-Fragment-1
C   3.16400  -0.94200  -0.37100
H   3.18100  -1.00800  -1.45300
H   3.87700  -0.18200  -0.06700
H   3.46600  -1.88700   0.05700
C   1.79400  -0.57900   0.16100
O   1.35700  -1.04500   1.17500
N   1.09100   0.30400  -0.60500
H   1.58300   0.72900  -1.35800
C  -0.09400   1.02700  -0.13200
C  -0.55400   1.93300  -1.28500
H   0.21100   2.67100  -1.51300
H  -0.75900   1.35500  -2.18000
H  -1.45600   2.45900  -1.00100
C   0.22200   1.87400   1.10600
H  -0.65100   2.43300   1.40900
H   0.53100   1.25100   1.93300
H   1.02300   2.56900   0.87000
C  -1.26900   0.07800   0.17200
O  -2.12700   0.41200   0.94300
N  -1.34600  -1.05100  -0.56200
H  -0.51800  -1.35900  -1.01300
C  -2.36900  -2.03600  -0.28200
H  -2.20300  -2.53300   0.66800
H  -3.33700  -1.55700  -0.25500
H  -2.36500  -2.77500  -1.07400