10
! from R.E.D. examples/3-Solvents
C  2.6533207814   2.0372974873  -9.2491963662
H  3.2608462859   2.8821329073  -8.9562938544
H  1.8102913937   1.9432086661  -8.5706921585
H  2.2488960193   2.2075458015 -10.2428640790
C  3.4883813665   0.7747290306  -9.2297526662
O  4.6407330801   0.7908198623  -8.9249724906
C  2.7861337411  -0.5093053916  -9.6169049946
H  3.4808409461  -1.3359580360  -9.5653833395
H  2.3865545308  -0.4325677466 -10.6240634786
H  1.9480018551  -0.6969025808  -8.9518765723