9
! from R.E.D. examples/1-Ethanol
C   1.2221856164  -0.1828063666  -0.0000000002
H   2.0554790754   0.5130914013  -0.0000000165
H   1.2975981715  -0.8136398357   0.8785851784
H   1.2975981477  -0.8136398516  -0.8785851687
C  -0.0970692039   0.5632891913   0.0000000087
H  -0.1639117672   1.2036429735   0.8777283569
H  -0.1639117762   1.2036429791  -0.8777283348
O  -1.1330832388  -0.3850537481   0.0000000095
H  -1.9698850249   0.0574732567  -0.0000000333