10
! from R.E.D. examples/2-Dimethylsulfoxide
C  3.87500   0.67800  -8.41700
H  3.80000   1.69000  -8.07600
H  3.40600   0.02600  -7.71100
H  3.38900   0.58300  -9.36600
S  5.35900   0.29300  -8.55900
O  5.46000  -1.05900  -9.01400
C  6.05500   0.43000  -7.19300
H  7.08700   0.16300  -7.29000
H  5.98000   1.44100  -6.85300
H  5.58200  -0.21900  -6.48500