10
! from R.E.D. examples/2-Dimethylsulfoxide rotate 6 5 1
C  2.00141256   0.31472971  -0.35755765
H  3.07673358   0.38298482  -0.24487857
H  1.49770261   0.84639077   0.44011755
H  1.70940501   0.74137535  -1.30794402
S  1.48516650  -1.40569307  -0.35755765
O  0.00001066  -1.40569307  -0.35755765
C  2.00141375  -1.81088319   1.31446949
H  1.70940538  -2.83501701   1.50528226
H  3.07673480  -1.71745030   1.40734053
H  1.49770626  -1.16086107   2.01904209