6
! from R.E.D. examples/3-Solvents
C6   0.6555371431  -0.0196168308  -0.0000000000
H1   1.0765799307   0.9760823414   0.0000000000
H1   1.0128688694  -0.5432540401   0.8835470775
H1   1.0128688694  -0.5432540400  -0.8835470775
O8  -0.7369798081   0.1206418849  -0.0000000000
H1  -1.1398750046  -0.7355993154   0.0000000000   