10
! from A.T.B. https://atb.uq.edu.au/molecule.py?molid=514411
C     1.36700   -0.84600   -0.25400
H     1.27900   -0.85500   -1.34500
H     2.30300   -0.36500    0.04200
H     1.33100   -1.86400    0.14600
S     0.00100    0.13000    0.46700
O    -0.00300    1.49200   -0.22500
C    -1.36700   -0.84700   -0.25300
H    -1.33600   -1.86300    0.15200
H    -1.27500   -0.86000   -1.34300
H    -2.30100   -0.36200    0.03900