10
! from R.E.D. examples/2-Dimethylsulfoxide orient 6 5 1
C  2.00140190   1.72042278   0.00000000
H  3.07672292   1.78867789   0.11267908
H  1.49769195   2.25208383   0.79767520
H  1.70939434   2.14706842  -0.95038637
S  1.48515584  -0.00000000   0.00000000
O  0.00000000   0.00000000   0.00000000
C  2.00140309  -0.40519013   1.67202714
H  1.70939472  -1.42932394   1.86283992
H  3.07672413  -0.31175723   1.76489819
H  1.49769560   0.24483200   2.37659975