25
! from R.E.D. examples/4-Fragment-1
C   3.1642022148  -0.9424520399  -0.3708636682
H   3.1808312888  -1.0080688043  -1.4531706032
H   3.8773057803  -0.1821070463  -0.0664978952
H   3.4663634954  -1.8872560635   0.0567191520
C   1.7936926040  -0.5786495217   0.1605709575
O   1.3569549500  -1.0444934550   1.1746100241
N   1.0907948491   0.3036813200  -0.6046684064
H   1.5832508250   0.7295232790  -1.3579574375
C  -0.0942076895   1.0271508976  -0.1315529490
C  -0.5535720853   1.9329061303  -1.2847822361
H   0.2105110230   2.6709127891  -1.5128504887
H  -0.7587046097   1.3553444410  -2.1795587006
H  -1.4559219171   2.4586713522  -1.0013080835
C   0.2221183375   1.8736691297   1.1057670681
H  -0.6509220471   2.4331814956   1.4090082111
H   0.5305859266   1.2506471632   1.9328907744
H   1.0226262339   2.5690170857   0.8699501772
C  -1.2689764049   0.0783391913   0.1718023431
O  -2.1268006240   0.4123051823   0.9426125385
N  -1.3462708796  -1.0511908139  -0.5622211147
H  -0.5180561898  -1.3590539112  -1.0134440423
C  -2.3692159857  -2.0361859717  -0.2822254910
H  -2.2031186076  -2.5325547046   0.6679463233
H  -3.3366353176  -1.5574059512  -0.2543875822
H  -2.3648351705  -2.7749311737  -1.0733888707