10
! from R.E.D. examples/2-Dimethylsulfoxide
C   3.7787218489   0.7099460365  -8.4358800149
H   3.7199547803   1.7353551063  -8.0912740044
H   3.3727951491   0.0324988805  -7.6949604622
H   3.2200309413   0.6050316563  -9.3564160613
S   5.4843687520   0.2699083657  -8.7873057009
O   5.4949906162  -1.1820495711  -9.0993845212
C   6.1255577314   0.4439602615  -7.1184894575
H   7.1686363815   0.1575024332  -7.1398743610
H   6.0389920737   1.4725205702  -6.7894907284
H   5.5889517256  -0.2186737389  -6.4509246884